external_data/tamu_texas_td/distribution_sample/p1uhs0_1247--p1udt1878/Loads.dss
New Load.load_p1ulv42_1 conn=wye bus1=p1ulv42.1 kV=0.12 Vminpu=0.8 Vmaxpu=1.2 model=1 kW=3.8840759036037777 kvar=1.0933356219479966 Phases=1 yearly=res_kw_30133_pu

New Load.load_p1ulv42_2 conn=wye bus1=p1ulv42.2 kV=0.12 Vminpu=0.8 Vmaxpu=1.2 model=1 kW=3.8840759036037777 kvar=1.0933356219479966 Phases=1 yearly=res_kw_30133_pu

New Load.load_p1ulv56_1 conn=wye bus1=p1ulv56.1 kV=0.12 Vminpu=0.8 Vmaxpu=1.2 model=1 kW=6.542796606095953 kvar=1.3738960086195124 Phases=1 yearly=res_kw_4691_pu

New Load.load_p1ulv56_2 conn=wye bus1=p1ulv56.2 kV=0.12 Vminpu=0.8 Vmaxpu=1.2 model=1 kW=6.542796606095953 kvar=1.3738960086195124 Phases=1 yearly=res_kw_4691_pu

New Load.load_p1ulv57_1 conn=wye bus1=p1ulv57.1 kV=0.12 Vminpu=0.8 Vmaxpu=1.2 model=1 kW=12.881427080810116 kvar=1.1210377991237672 Phases=1 yearly=com_kw_43878_pu

New Load.load_p1ulv57_2 conn=wye bus1=p1ulv57.2 kV=0.12 Vminpu=0.8 Vmaxpu=1.2 model=1 kW=12.881427080810116 kvar=1.1210377991237672 Phases=1 yearly=com_kw_43878_pu

New Load.load_p1ulv60_1 conn=wye bus1=p1ulv60.1 kV=0.12 Vminpu=0.8 Vmaxpu=1.2 model=1 kW=5.850494669124461 kvar=0.8234601250580765 Phases=1 yearly=res_kw_25330_pu

New Load.load_p1ulv60_2 conn=wye bus1=p1ulv60.2 kV=0.12 Vminpu=0.8 Vmaxpu=1.2 model=1 kW=5.850494669124461 kvar=0.8234601250580765 Phases=1 yearly=res_kw_25330_pu

New Load.load_p1ulv61_1 conn=wye bus1=p1ulv61.1 kV=0.12 Vminpu=0.8 Vmaxpu=1.2 model=1 kW=5.850494669124461 kvar=0.8234601250580765 Phases=1 yearly=res_kw_25330_pu

New Load.load_p1ulv61_2 conn=wye bus1=p1ulv61.2 kV=0.12 Vminpu=0.8 Vmaxpu=1.2 model=1 kW=5.850494669124461 kvar=0.8234601250580765 Phases=1 yearly=res_kw_25330_pu

New Load.load_p1ulv62_1 conn=wye bus1=p1ulv62.1 kV=0.12 Vminpu=0.8 Vmaxpu=1.2 model=1 kW=6.832059856522537 kvar=1.6585788654675102 Phases=1 yearly=res_kw_4997_pu

New Load.load_p1ulv62_2 conn=wye bus1=p1ulv62.2 kV=0.12 Vminpu=0.8 Vmaxpu=1.2 model=1 kW=6.832059856522537 kvar=1.6585788654675102 Phases=1 yearly=res_kw_4997_pu

New Load.load_p1ulv162_1 conn=wye bus1=p1ulv162.1 kV=0.12 Vminpu=0.8 Vmaxpu=1.2 model=1 kW=6.929240594269207 kvar=2.0512582922559144 Phases=1 yearly=res_kw_17576_pu

New Load.load_p1ulv162_2 conn=wye bus1=p1ulv162.2 kV=0.12 Vminpu=0.8 Vmaxpu=1.2 model=1 kW=6.929240594269207 kvar=2.0512582922559144 Phases=1 yearly=res_kw_17576_pu

New Load.load_p1ulv178_1 conn=wye bus1=p1ulv178.1 kV=0.12 Vminpu=0.8 Vmaxpu=1.2 model=1 kW=3.4076541214547826 kvar=1.1225499298816486 Phases=1 yearly=res_kw_11924_pu

New Load.load_p1ulv178_2 conn=wye bus1=p1ulv178.2 kV=0.12 Vminpu=0.8 Vmaxpu=1.2 model=1 kW=3.4076541214547826 kvar=1.1225499298816486 Phases=1 yearly=res_kw_11924_pu

New Load.load_p1ulv180_1 conn=wye bus1=p1ulv180.1 kV=0.12 Vminpu=0.8 Vmaxpu=1.2 model=1 kW=5.850494669124461 kvar=0.8234601250580765 Phases=1 yearly=res_kw_25330_pu

New Load.load_p1ulv180_2 conn=wye bus1=p1ulv180.2 kV=0.12 Vminpu=0.8 Vmaxpu=1.2 model=1 kW=5.850494669124461 kvar=0.8234601250580765 Phases=1 yearly=res_kw_25330_pu

New Load.load_p1ulv187_1 conn=wye bus1=p1ulv187.1 kV=0.12 Vminpu=0.8 Vmaxpu=1.2 model=1 kW=5.850494669124461 kvar=0.8234601250580765 Phases=1 yearly=res_kw_25330_pu

New Load.load_p1ulv187_2 conn=wye bus1=p1ulv187.2 kV=0.12 Vminpu=0.8 Vmaxpu=1.2 model=1 kW=5.850494669124461 kvar=0.8234601250580765 Phases=1 yearly=res_kw_25330_pu

New Load.load_p1ulv188_1 conn=wye bus1=p1ulv188.1 kV=0.12 Vminpu=0.8 Vmaxpu=1.2 model=1 kW=5.477075778456393 kvar=1.1028306519331006 Phases=1 yearly=res_kw_18424_pu

New Load.load_p1ulv188_2 conn=wye bus1=p1ulv188.2 kV=0.12 Vminpu=0.8 Vmaxpu=1.2 model=1 kW=5.477075778456393 kvar=1.1028306519331006 Phases=1 yearly=res_kw_18424_pu

New Load.load_p1ulv189 conn=wye bus1=p1ulv189.1.2.3 kV=0.48 Vminpu=0.8 Vmaxpu=1.2 model=1 kW=83.10098533797712 kvar=20.06247633864531 Phases=3 yearly=com_kw_794_pu

New Load.load_p1ulv192_1 conn=wye bus1=p1ulv192.1 kV=0.12 Vminpu=0.8 Vmaxpu=1.2 model=1 kW=5.850494669124461 kvar=0.8234601250580765 Phases=1 yearly=res_kw_25330_pu

New Load.load_p1ulv192_2 conn=wye bus1=p1ulv192.2 kV=0.12 Vminpu=0.8 Vmaxpu=1.2 model=1 kW=5.850494669124461 kvar=0.8234601250580765 Phases=1 yearly=res_kw_25330_pu

New Load.load_p1ulv193_1 conn=wye bus1=p1ulv193.1 kV=0.12 Vminpu=0.8 Vmaxpu=1.2 model=1 kW=3.4076541214547826 kvar=1.1225499298816486 Phases=1 yearly=res_kw_11924_pu

New Load.load_p1ulv193_2 conn=wye bus1=p1ulv193.2 kV=0.12 Vminpu=0.8 Vmaxpu=1.2 model=1 kW=3.4076541214547826 kvar=1.1225499298816486 Phases=1 yearly=res_kw_11924_pu

New Load.load_p1ulv275_1 conn=wye bus1=p1ulv275.1 kV=0.12 Vminpu=0.8 Vmaxpu=1.2 model=1 kW=5.691543528113089 kvar=1.5564485607853333 Phases=1 yearly=res_kw_9613_pu

New Load.load_p1ulv275_2 conn=wye bus1=p1ulv275.2 kV=0.12 Vminpu=0.8 Vmaxpu=1.2 model=1 kW=5.691543528113089 kvar=1.5564485607853333 Phases=1 yearly=res_kw_9613_pu

New Load.load_p1ulv281_1 conn=wye bus1=p1ulv281.1 kV=0.12 Vminpu=0.8 Vmaxpu=1.2 model=1 kW=21.562638865515883 kvar=5.367559699681219 Phases=1 yearly=res_kw_31852_pu

New Load.load_p1ulv281_2 conn=wye bus1=p1ulv281.2 kV=0.12 Vminpu=0.8 Vmaxpu=1.2 model=1 kW=21.562638865515883 kvar=5.367559699681219 Phases=1 yearly=res_kw_31852_pu

New Load.load_p1ulv288_1 conn=wye bus1=p1ulv288.1 kV=0.12 Vminpu=0.8 Vmaxpu=1.2 model=1 kW=5.691543528113089 kvar=1.5564485607853333 Phases=1 yearly=res_kw_9613_pu

New Load.load_p1ulv288_2 conn=wye bus1=p1ulv288.2 kV=0.12 Vminpu=0.8 Vmaxpu=1.2 model=1 kW=5.691543528113089 kvar=1.5564485607853333 Phases=1 yearly=res_kw_9613_pu

New Load.load_p1ulv291_1 conn=wye bus1=p1ulv291.1 kV=0.12 Vminpu=0.8 Vmaxpu=1.2 model=1 kW=6.542796606095953 kvar=1.3738960086195124 Phases=1 yearly=res_kw_4691_pu

New Load.load_p1ulv291_2 conn=wye bus1=p1ulv291.2 kV=0.12 Vminpu=0.8 Vmaxpu=1.2 model=1 kW=6.542796606095953 kvar=1.3738960086195124 Phases=1 yearly=res_kw_4691_pu

New Load.load_p1ulv297 conn=wye bus1=p1ulv297.1.2.3 kV=0.48 Vminpu=0.8 Vmaxpu=1.2 model=1 kW=44.2536834358633 kvar=10.908830382308812 Phases=3 yearly=com_kw_72_pu

New Load.load_p1ulv300_1 conn=wye bus1=p1ulv300.1 kV=0.12 Vminpu=0.8 Vmaxpu=1.2 model=1 kW=12.881427080810116 kvar=1.1210377991237672 Phases=1 yearly=com_kw_43878_pu

New Load.load_p1ulv300_2 conn=wye bus1=p1ulv300.2 kV=0.12 Vminpu=0.8 Vmaxpu=1.2 model=1 kW=12.881427080810116 kvar=1.1210377991237672 Phases=1 yearly=com_kw_43878_pu

New Load.load_p1ulv400_1 conn=wye bus1=p1ulv400.1 kV=0.12 Vminpu=0.8 Vmaxpu=1.2 model=1 kW=6.542796606095953 kvar=1.3738960086195124 Phases=1 yearly=res_kw_4691_pu

New Load.load_p1ulv400_2 conn=wye bus1=p1ulv400.2 kV=0.12 Vminpu=0.8 Vmaxpu=1.2 model=1 kW=6.542796606095953 kvar=1.3738960086195124 Phases=1 yearly=res_kw_4691_pu

New Load.load_p1ulv402_1 conn=wye bus1=p1ulv402.1 kV=0.12 Vminpu=0.8 Vmaxpu=1.2 model=1 kW=5.691543528113089 kvar=1.5564485607853333 Phases=1 yearly=res_kw_9613_pu

New Load.load_p1ulv402_2 conn=wye bus1=p1ulv402.2 kV=0.12 Vminpu=0.8 Vmaxpu=1.2 model=1 kW=5.691543528113089 kvar=1.5564485607853333 Phases=1 yearly=res_kw_9613_pu

New Load.load_p1ulv404_1 conn=wye bus1=p1ulv404.1 kV=0.12 Vminpu=0.8 Vmaxpu=1.2 model=1 kW=5.850494669124461 kvar=0.8234601250580765 Phases=1 yearly=res_kw_25330_pu

New Load.load_p1ulv404_2 conn=wye bus1=p1ulv404.2 kV=0.12 Vminpu=0.8 Vmaxpu=1.2 model=1 kW=5.850494669124461 kvar=0.8234601250580765 Phases=1 yearly=res_kw_25330_pu

New Load.load_p1ulv417_1 conn=wye bus1=p1ulv417.1 kV=0.12 Vminpu=0.8 Vmaxpu=1.2 model=1 kW=12.881427080810116 kvar=1.1210377991237672 Phases=1 yearly=com_kw_43878_pu

New Load.load_p1ulv417_2 conn=wye bus1=p1ulv417.2 kV=0.12 Vminpu=0.8 Vmaxpu=1.2 model=1 kW=12.881427080810116 kvar=1.1210377991237672 Phases=1 yearly=com_kw_43878_pu

New Load.load_p1ulv418_1 conn=wye bus1=p1ulv418.1 kV=0.12 Vminpu=0.8 Vmaxpu=1.2 model=1 kW=6.542796606095953 kvar=1.3738960086195124 Phases=1 yearly=res_kw_4691_pu

New Load.load_p1ulv418_2 conn=wye bus1=p1ulv418.2 kV=0.12 Vminpu=0.8 Vmaxpu=1.2 model=1 kW=6.542796606095953 kvar=1.3738960086195124 Phases=1 yearly=res_kw_4691_pu

New Load.load_p1ulv500_1 conn=wye bus1=p1ulv500.1 kV=0.12 Vminpu=0.8 Vmaxpu=1.2 model=1 kW=12.881427080810116 kvar=1.1210377991237672 Phases=1 yearly=com_kw_43878_pu

New Load.load_p1ulv500_2 conn=wye bus1=p1ulv500.2 kV=0.12 Vminpu=0.8 Vmaxpu=1.2 model=1 kW=12.881427080810116 kvar=1.1210377991237672 Phases=1 yearly=com_kw_43878_pu

New Load.load_p1ulv606_1 conn=wye bus1=p1ulv606.1 kV=0.12 Vminpu=0.8 Vmaxpu=1.2 model=1 kW=5.850494669124461 kvar=0.8234601250580765 Phases=1 yearly=res_kw_25330_pu

New Load.load_p1ulv606_2 conn=wye bus1=p1ulv606.2 kV=0.12 Vminpu=0.8 Vmaxpu=1.2 model=1 kW=5.850494669124461 kvar=0.8234601250580765 Phases=1 yearly=res_kw_25330_pu

New Load.load_p1ulv607_1 conn=wye bus1=p1ulv607.1 kV=0.12 Vminpu=0.8 Vmaxpu=1.2 model=1 kW=5.850494669124461 kvar=0.8234601250580765 Phases=1 yearly=res_kw_25330_pu

New Load.load_p1ulv607_2 conn=wye bus1=p1ulv607.2 kV=0.12 Vminpu=0.8 Vmaxpu=1.2 model=1 kW=5.850494669124461 kvar=0.8234601250580765 Phases=1 yearly=res_kw_25330_pu

New Load.load_p1ulv620_1 conn=wye bus1=p1ulv620.1 kV=0.12 Vminpu=0.8 Vmaxpu=1.2 model=1 kW=12.881427080810116 kvar=1.1210377991237672 Phases=1 yearly=com_kw_43878_pu

New Load.load_p1ulv620_2 conn=wye bus1=p1ulv620.2 kV=0.12 Vminpu=0.8 Vmaxpu=1.2 model=1 kW=12.881427080810116 kvar=1.1210377991237672 Phases=1 yearly=com_kw_43878_pu

New Load.load_p1ulv701 conn=wye bus1=p1ulv701.1.2.3 kV=0.48 Vminpu=0.8 Vmaxpu=1.2 model=1 kW=86.25170172104967 kvar=24.530887140887593 Phases=3 yearly=com_kw_35974_pu

New Load.load_p1ulv702_1 conn=wye bus1=p1ulv702.1 kV=0.12 Vminpu=0.8 Vmaxpu=1.2 model=1 kW=12.881427080810116 kvar=1.1210377991237672 Phases=1 yearly=com_kw_43878_pu

New Load.load_p1ulv702_2 conn=wye bus1=p1ulv702.2 kV=0.12 Vminpu=0.8 Vmaxpu=1.2 model=1 kW=12.881427080810116 kvar=1.1210377991237672 Phases=1 yearly=com_kw_43878_pu

New Load.load_p1ulv703_1 conn=wye bus1=p1ulv703.1 kV=0.12 Vminpu=0.8 Vmaxpu=1.2 model=1 kW=4.72173143244996 kvar=1.538566889300083 Phases=1 yearly=res_kw_1103_pu

New Load.load_p1ulv703_2 conn=wye bus1=p1ulv703.2 kV=0.12 Vminpu=0.8 Vmaxpu=1.2 model=1 kW=4.72173143244996 kvar=1.538566889300083 Phases=1 yearly=res_kw_1103_pu

New Load.load_p1ulv712_1 conn=wye bus1=p1ulv712.1 kV=0.12 Vminpu=0.8 Vmaxpu=1.2 model=1 kW=8.60776795895911 kvar=2.1893473513523944 Phases=1 yearly=res_kw_17978_pu

New Load.load_p1ulv712_2 conn=wye bus1=p1ulv712.2 kV=0.12 Vminpu=0.8 Vmaxpu=1.2 model=1 kW=8.60776795895911 kvar=2.1893473513523944 Phases=1 yearly=res_kw_17978_pu

New Load.load_p1ulv726_1 conn=wye bus1=p1ulv726.1 kV=0.12 Vminpu=0.8 Vmaxpu=1.2 model=1 kW=6.542796606095953 kvar=1.3738960086195124 Phases=1 yearly=res_kw_4691_pu

New Load.load_p1ulv726_2 conn=wye bus1=p1ulv726.2 kV=0.12 Vminpu=0.8 Vmaxpu=1.2 model=1 kW=6.542796606095953 kvar=1.3738960086195124 Phases=1 yearly=res_kw_4691_pu

New Load.load_p1ulv727_1 conn=wye bus1=p1ulv727.1 kV=0.12 Vminpu=0.8 Vmaxpu=1.2 model=1 kW=12.881427080810116 kvar=1.1210377991237672 Phases=1 yearly=com_kw_43878_pu

New Load.load_p1ulv727_2 conn=wye bus1=p1ulv727.2 kV=0.12 Vminpu=0.8 Vmaxpu=1.2 model=1 kW=12.881427080810116 kvar=1.1210377991237672 Phases=1 yearly=com_kw_43878_pu

New Load.load_p1ulv728_1 conn=wye bus1=p1ulv728.1 kV=0.12 Vminpu=0.8 Vmaxpu=1.2 model=1 kW=13.747389169166972 kvar=4.63444149564882 Phases=1 yearly=res_kw_15223_pu

New Load.load_p1ulv728_2 conn=wye bus1=p1ulv728.2 kV=0.12 Vminpu=0.8 Vmaxpu=1.2 model=1 kW=13.747389169166972 kvar=4.63444149564882 Phases=1 yearly=res_kw_15223_pu

New Load.load_p1ulv729_1 conn=wye bus1=p1ulv729.1 kV=0.12 Vminpu=0.8 Vmaxpu=1.2 model=1 kW=2.620380046721935 kvar=0.7667224715579932 Phases=1 yearly=res_kw_33214_pu

New Load.load_p1ulv729_2 conn=wye bus1=p1ulv729.2 kV=0.12 Vminpu=0.8 Vmaxpu=1.2 model=1 kW=2.620380046721935 kvar=0.7667224715579932 Phases=1 yearly=res_kw_33214_pu

New Load.load_p1ulv839_1 conn=wye bus1=p1ulv839.1 kV=0.12 Vminpu=0.8 Vmaxpu=1.2 model=1 kW=12.881427080810116 kvar=1.1210377991237672 Phases=1 yearly=com_kw_43878_pu

New Load.load_p1ulv839_2 conn=wye bus1=p1ulv839.2 kV=0.12 Vminpu=0.8 Vmaxpu=1.2 model=1 kW=12.881427080810116 kvar=1.1210377991237672 Phases=1 yearly=com_kw_43878_pu

New Load.load_p1ulv840_1 conn=wye bus1=p1ulv840.1 kV=0.12 Vminpu=0.8 Vmaxpu=1.2 model=1 kW=5.850494669124461 kvar=0.8234601250580765 Phases=1 yearly=res_kw_25330_pu

New Load.load_p1ulv840_2 conn=wye bus1=p1ulv840.2 kV=0.12 Vminpu=0.8 Vmaxpu=1.2 model=1 kW=5.850494669124461 kvar=0.8234601250580765 Phases=1 yearly=res_kw_25330_pu

New Load.load_p1ulv853_1 conn=wye bus1=p1ulv853.1 kV=0.12 Vminpu=0.8 Vmaxpu=1.2 model=1 kW=6.64160122236253 kvar=1.2197705977517828 Phases=1 yearly=res_kw_4561_pu

New Load.load_p1ulv853_2 conn=wye bus1=p1ulv853.2 kV=0.12 Vminpu=0.8 Vmaxpu=1.2 model=1 kW=6.64160122236253 kvar=1.2197705977517828 Phases=1 yearly=res_kw_4561_pu

New Load.load_p1ulv855_1 conn=wye bus1=p1ulv855.1 kV=0.12 Vminpu=0.8 Vmaxpu=1.2 model=1 kW=2.7481711729648683 kvar=0.18872981642516995 Phases=1 yearly=res_kw_39288_pu

New Load.load_p1ulv855_2 conn=wye bus1=p1ulv855.2 kV=0.12 Vminpu=0.8 Vmaxpu=1.2 model=1 kW=2.7481711729648683 kvar=0.18872981642516995 Phases=1 yearly=res_kw_39288_pu

New Load.load_p1ulv856_1 conn=wye bus1=p1ulv856.1 kV=0.12 Vminpu=0.8 Vmaxpu=1.2 model=1 kW=5.477075778456393 kvar=1.1028306519331006 Phases=1 yearly=res_kw_18424_pu

New Load.load_p1ulv856_2 conn=wye bus1=p1ulv856.2 kV=0.12 Vminpu=0.8 Vmaxpu=1.2 model=1 kW=5.477075778456393 kvar=1.1028306519331006 Phases=1 yearly=res_kw_18424_pu

New Load.load_p1ulv950_1 conn=wye bus1=p1ulv950.1 kV=0.12 Vminpu=0.8 Vmaxpu=1.2 model=1 kW=6.999931342534885 kvar=1.9776107197707575 Phases=1 yearly=res_kw_3379_pu

New Load.load_p1ulv950_2 conn=wye bus1=p1ulv950.2 kV=0.12 Vminpu=0.8 Vmaxpu=1.2 model=1 kW=6.999931342534885 kvar=1.9776107197707575 Phases=1 yearly=res_kw_3379_pu

New Load.load_p1ulv957_1 conn=wye bus1=p1ulv957.1 kV=0.12 Vminpu=0.8 Vmaxpu=1.2 model=1 kW=5.850494669124461 kvar=0.8234601250580765 Phases=1 yearly=res_kw_25330_pu

New Load.load_p1ulv957_2 conn=wye bus1=p1ulv957.2 kV=0.12 Vminpu=0.8 Vmaxpu=1.2 model=1 kW=5.850494669124461 kvar=0.8234601250580765 Phases=1 yearly=res_kw_25330_pu

New Load.load_p1ulv958_1 conn=wye bus1=p1ulv958.1 kV=0.12 Vminpu=0.8 Vmaxpu=1.2 model=1 kW=12.881427080810116 kvar=1.1210377991237672 Phases=1 yearly=com_kw_43878_pu

New Load.load_p1ulv958_2 conn=wye bus1=p1ulv958.2 kV=0.12 Vminpu=0.8 Vmaxpu=1.2 model=1 kW=12.881427080810116 kvar=1.1210377991237672 Phases=1 yearly=com_kw_43878_pu

New Load.load_p1ulv1061_1 conn=wye bus1=p1ulv1061.1 kV=0.12 Vminpu=0.8 Vmaxpu=1.2 model=1 kW=9.957858863968443 kvar=2.996767143573338 Phases=1 yearly=res_kw_28011_pu

New Load.load_p1ulv1061_2 conn=wye bus1=p1ulv1061.2 kV=0.12 Vminpu=0.8 Vmaxpu=1.2 model=1 kW=9.957858863968443 kvar=2.996767143573338 Phases=1 yearly=res_kw_28011_pu

New Load.load_p1ulv1062_1 conn=wye bus1=p1ulv1062.1 kV=0.12 Vminpu=0.8 Vmaxpu=1.2 model=1 kW=5.691543528113089 kvar=1.5564485607853333 Phases=1 yearly=res_kw_9613_pu

New Load.load_p1ulv1062_2 conn=wye bus1=p1ulv1062.2 kV=0.12 Vminpu=0.8 Vmaxpu=1.2 model=1 kW=5.691543528113089 kvar=1.5564485607853333 Phases=1 yearly=res_kw_9613_pu

New Load.load_p1ulv1076_1 conn=wye bus1=p1ulv1076.1 kV=0.12 Vminpu=0.8 Vmaxpu=1.2 model=1 kW=12.881427080810116 kvar=1.1210377991237672 Phases=1 yearly=com_kw_43878_pu

New Load.load_p1ulv1076_2 conn=wye bus1=p1ulv1076.2 kV=0.12 Vminpu=0.8 Vmaxpu=1.2 model=1 kW=12.881427080810116 kvar=1.1210377991237672 Phases=1 yearly=com_kw_43878_pu

New Load.load_p1ulv1077_1 conn=wye bus1=p1ulv1077.1 kV=0.12 Vminpu=0.8 Vmaxpu=1.2 model=1 kW=5.850494669124461 kvar=0.8234601250580765 Phases=1 yearly=res_kw_25330_pu

New Load.load_p1ulv1077_2 conn=wye bus1=p1ulv1077.2 kV=0.12 Vminpu=0.8 Vmaxpu=1.2 model=1 kW=5.850494669124461 kvar=0.8234601250580765 Phases=1 yearly=res_kw_25330_pu

New Load.load_p1ulv1079_1 conn=wye bus1=p1ulv1079.1 kV=0.12 Vminpu=0.8 Vmaxpu=1.2 model=1 kW=5.691543528113089 kvar=1.5564485607853333 Phases=1 yearly=res_kw_9613_pu

New Load.load_p1ulv1079_2 conn=wye bus1=p1ulv1079.2 kV=0.12 Vminpu=0.8 Vmaxpu=1.2 model=1 kW=5.691543528113089 kvar=1.5564485607853333 Phases=1 yearly=res_kw_9613_pu

New Load.load_p1ulv1080_1 conn=wye bus1=p1ulv1080.1 kV=0.12 Vminpu=0.8 Vmaxpu=1.2 model=1 kW=3.4076541214547826 kvar=1.1225499298816486 Phases=1 yearly=res_kw_11924_pu

New Load.load_p1ulv1080_2 conn=wye bus1=p1ulv1080.2 kV=0.12 Vminpu=0.8 Vmaxpu=1.2 model=1 kW=3.4076541214547826 kvar=1.1225499298816486 Phases=1 yearly=res_kw_11924_pu

New Load.load_p1ulv1168 conn=wye bus1=p1ulv1168.1.2.3 kV=0.48 Vminpu=0.8 Vmaxpu=1.2 model=1 kW=83.10098533797712 kvar=20.06247633864531 Phases=3 yearly=com_kw_794_pu

New Load.load_p1ulv1179_1 conn=wye bus1=p1ulv1179.1 kV=0.12 Vminpu=0.8 Vmaxpu=1.2 model=1 kW=6.832059856522537 kvar=1.6585788654675102 Phases=1 yearly=res_kw_4997_pu

New Load.load_p1ulv1179_2 conn=wye bus1=p1ulv1179.2 kV=0.12 Vminpu=0.8 Vmaxpu=1.2 model=1 kW=6.832059856522537 kvar=1.6585788654675102 Phases=1 yearly=res_kw_4997_pu

New Load.load_p1ulv1180_1 conn=wye bus1=p1ulv1180.1 kV=0.12 Vminpu=0.8 Vmaxpu=1.2 model=1 kW=5.691543528113089 kvar=1.5564485607853333 Phases=1 yearly=res_kw_9613_pu

New Load.load_p1ulv1180_2 conn=wye bus1=p1ulv1180.2 kV=0.12 Vminpu=0.8 Vmaxpu=1.2 model=1 kW=5.691543528113089 kvar=1.5564485607853333 Phases=1 yearly=res_kw_9613_pu

New Load.load_p1ulv1193_1 conn=wye bus1=p1ulv1193.1 kV=0.12 Vminpu=0.8 Vmaxpu=1.2 model=1 kW=3.2172356677812353 kvar=1.4107078304786496 Phases=1 yearly=res_kw_6317_pu

New Load.load_p1ulv1193_2 conn=wye bus1=p1ulv1193.2 kV=0.12 Vminpu=0.8 Vmaxpu=1.2 model=1 kW=3.2172356677812353 kvar=1.4107078304786496 Phases=1 yearly=res_kw_6317_pu

New Load.load_p1ulv1300 conn=wye bus1=p1ulv1300.1.2.3 kV=0.48 Vminpu=0.8 Vmaxpu=1.2 model=1 kW=59.166432898795726 kvar=13.960164733982223 Phases=3 yearly=com_kw_19250_pu

New Load.load_p1ulv1309_1 conn=wye bus1=p1ulv1309.1 kV=0.12 Vminpu=0.8 Vmaxpu=1.2 model=1 kW=5.691543528113089 kvar=1.5564485607853333 Phases=1 yearly=res_kw_9613_pu

New Load.load_p1ulv1309_2 conn=wye bus1=p1ulv1309.2 kV=0.12 Vminpu=0.8 Vmaxpu=1.2 model=1 kW=5.691543528113089 kvar=1.5564485607853333 Phases=1 yearly=res_kw_9613_pu

New Load.load_p1ulv1310_1 conn=wye bus1=p1ulv1310.1 kV=0.12 Vminpu=0.8 Vmaxpu=1.2 model=1 kW=5.816498322648364 kvar=0.7544479530121669 Phases=1 yearly=res_kw_24677_pu

New Load.load_p1ulv1310_2 conn=wye bus1=p1ulv1310.2 kV=0.12 Vminpu=0.8 Vmaxpu=1.2 model=1 kW=5.816498322648364 kvar=0.7544479530121669 Phases=1 yearly=res_kw_24677_pu

New Load.load_p1ulv1324_1 conn=wye bus1=p1ulv1324.1 kV=0.12 Vminpu=0.8 Vmaxpu=1.2 model=1 kW=6.542796606095953 kvar=1.3738960086195124 Phases=1 yearly=res_kw_4691_pu

New Load.load_p1ulv1324_2 conn=wye bus1=p1ulv1324.2 kV=0.12 Vminpu=0.8 Vmaxpu=1.2 model=1 kW=6.542796606095953 kvar=1.3738960086195124 Phases=1 yearly=res_kw_4691_pu

New Load.load_p1ulv1325_1 conn=wye bus1=p1ulv1325.1 kV=0.12 Vminpu=0.8 Vmaxpu=1.2 model=1 kW=12.881427080810116 kvar=1.1210377991237672 Phases=1 yearly=com_kw_43878_pu

New Load.load_p1ulv1325_2 conn=wye bus1=p1ulv1325.2 kV=0.12 Vminpu=0.8 Vmaxpu=1.2 model=1 kW=12.881427080810116 kvar=1.1210377991237672 Phases=1 yearly=com_kw_43878_pu

New Load.load_p1ulv1440_1 conn=wye bus1=p1ulv1440.1 kV=0.12 Vminpu=0.8 Vmaxpu=1.2 model=1 kW=2.6077776029016824 kvar=0.7673832328926916 Phases=1 yearly=res_kw_4467_pu

New Load.load_p1ulv1440_2 conn=wye bus1=p1ulv1440.2 kV=0.12 Vminpu=0.8 Vmaxpu=1.2 model=1 kW=2.6077776029016824 kvar=0.7673832328926916 Phases=1 yearly=res_kw_4467_pu

New Load.load_p1ulv1441_1 conn=wye bus1=p1ulv1441.1 kV=0.12 Vminpu=0.8 Vmaxpu=1.2 model=1 kW=9.957858863968443 kvar=2.996767143573338 Phases=1 yearly=res_kw_28011_pu

New Load.load_p1ulv1441_2 conn=wye bus1=p1ulv1441.2 kV=0.12 Vminpu=0.8 Vmaxpu=1.2 model=1 kW=9.957858863968443 kvar=2.996767143573338 Phases=1 yearly=res_kw_28011_pu

New Load.load_p1ulv1455 conn=wye bus1=p1ulv1455.1.2.3 kV=0.48 Vminpu=0.8 Vmaxpu=1.2 model=1 kW=67.9537778254126 kvar=18.83383776137776 Phases=3 yearly=com_kw_36035_pu

New Load.load_p1ulv1456 conn=wye bus1=p1ulv1456.1.2.3 kV=0.48 Vminpu=0.8 Vmaxpu=1.2 model=1 kW=59.37745936310171 kvar=5.22210934730589 Phases=3 yearly=com_kw_36026_pu

New Load.load_p1ulv1458_1 conn=wye bus1=p1ulv1458.1 kV=0.12 Vminpu=0.8 Vmaxpu=1.2 model=1 kW=5.691543528113089 kvar=1.5564485607853333 Phases=1 yearly=res_kw_9613_pu

New Load.load_p1ulv1458_2 conn=wye bus1=p1ulv1458.2 kV=0.12 Vminpu=0.8 Vmaxpu=1.2 model=1 kW=5.691543528113089 kvar=1.5564485607853333 Phases=1 yearly=res_kw_9613_pu

New Load.load_p1ulv1541_1 conn=wye bus1=p1ulv1541.1 kV=0.12 Vminpu=0.8 Vmaxpu=1.2 model=1 kW=11.241842814813523 kvar=0.6110659267595828 Phases=1 yearly=com_kw_35147_pu

New Load.load_p1ulv1541_2 conn=wye bus1=p1ulv1541.2 kV=0.12 Vminpu=0.8 Vmaxpu=1.2 model=1 kW=11.241842814813523 kvar=0.6110659267595828 Phases=1 yearly=com_kw_35147_pu

New Load.load_p1ulv1558_1 conn=wye bus1=p1ulv1558.1 kV=0.12 Vminpu=0.8 Vmaxpu=1.2 model=1 kW=6.542796606095953 kvar=1.3738960086195124 Phases=1 yearly=res_kw_4691_pu

New Load.load_p1ulv1558_2 conn=wye bus1=p1ulv1558.2 kV=0.12 Vminpu=0.8 Vmaxpu=1.2 model=1 kW=6.542796606095953 kvar=1.3738960086195124 Phases=1 yearly=res_kw_4691_pu

New Load.load_p1ulv1559_1 conn=wye bus1=p1ulv1559.1 kV=0.12 Vminpu=0.8 Vmaxpu=1.2 model=1 kW=3.4076541214547826 kvar=1.1225499298816486 Phases=1 yearly=res_kw_11924_pu

New Load.load_p1ulv1559_2 conn=wye bus1=p1ulv1559.2 kV=0.12 Vminpu=0.8 Vmaxpu=1.2 model=1 kW=3.4076541214547826 kvar=1.1225499298816486 Phases=1 yearly=res_kw_11924_pu

New Load.load_p1ulv1561_1 conn=wye bus1=p1ulv1561.1 kV=0.12 Vminpu=0.8 Vmaxpu=1.2 model=1 kW=2.6077776029016824 kvar=0.7673832328926916 Phases=1 yearly=res_kw_4467_pu

New Load.load_p1ulv1561_2 conn=wye bus1=p1ulv1561.2 kV=0.12 Vminpu=0.8 Vmaxpu=1.2 model=1 kW=2.6077776029016824 kvar=0.7673832328926916 Phases=1 yearly=res_kw_4467_pu

New Load.load_p1ulv1562_1 conn=wye bus1=p1ulv1562.1 kV=0.12 Vminpu=0.8 Vmaxpu=1.2 model=1 kW=2.6077776029016824 kvar=0.7673832328926916 Phases=1 yearly=res_kw_4467_pu

New Load.load_p1ulv1562_2 conn=wye bus1=p1ulv1562.2 kV=0.12 Vminpu=0.8 Vmaxpu=1.2 model=1 kW=2.6077776029016824 kvar=0.7673832328926916 Phases=1 yearly=res_kw_4467_pu

New Load.load_p1ulv1569_1 conn=wye bus1=p1ulv1569.1 kV=0.12 Vminpu=0.8 Vmaxpu=1.2 model=1 kW=3.4076541214547826 kvar=1.1225499298816486 Phases=1 yearly=res_kw_11924_pu

New Load.load_p1ulv1569_2 conn=wye bus1=p1ulv1569.2 kV=0.12 Vminpu=0.8 Vmaxpu=1.2 model=1 kW=3.4076541214547826 kvar=1.1225499298816486 Phases=1 yearly=res_kw_11924_pu

New Load.load_p1ulv1570_1 conn=wye bus1=p1ulv1570.1 kV=0.12 Vminpu=0.8 Vmaxpu=1.2 model=1 kW=10.818691419477585 kvar=2.796749767442345 Phases=1 yearly=com_kw_35980_pu

New Load.load_p1ulv1570_2 conn=wye bus1=p1ulv1570.2 kV=0.12 Vminpu=0.8 Vmaxpu=1.2 model=1 kW=10.818691419477585 kvar=2.796749767442345 Phases=1 yearly=com_kw_35980_pu

New Load.load_p1ulv1572 conn=wye bus1=p1ulv1572.1.2.3 kV=0.48 Vminpu=0.8 Vmaxpu=1.2 model=1 kW=88.54486634004519 kvar=27.16762046405457 Phases=3 yearly=com_kw_32997_pu

New Load.load_p1ulv1573_1 conn=wye bus1=p1ulv1573.1 kV=0.12 Vminpu=0.8 Vmaxpu=1.2 model=1 kW=6.832059856522537 kvar=1.6585788654675102 Phases=1 yearly=res_kw_4997_pu

New Load.load_p1ulv1573_2 conn=wye bus1=p1ulv1573.2 kV=0.12 Vminpu=0.8 Vmaxpu=1.2 model=1 kW=6.832059856522537 kvar=1.6585788654675102 Phases=1 yearly=res_kw_4997_pu

New Load.load_p1ulv1657_1 conn=wye bus1=p1ulv1657.1 kV=0.12 Vminpu=0.8 Vmaxpu=1.2 model=1 kW=5.111856738203394 kvar=1.382732157294961 Phases=1 yearly=res_kw_34408_pu

New Load.load_p1ulv1657_2 conn=wye bus1=p1ulv1657.2 kV=0.12 Vminpu=0.8 Vmaxpu=1.2 model=1 kW=5.111856738203394 kvar=1.382732157294961 Phases=1 yearly=res_kw_34408_pu

New Load.load_p1ulv1658_1 conn=wye bus1=p1ulv1658.1 kV=0.12 Vminpu=0.8 Vmaxpu=1.2 model=1 kW=12.881427080810116 kvar=1.1210377991237672 Phases=1 yearly=com_kw_43878_pu

New Load.load_p1ulv1658_2 conn=wye bus1=p1ulv1658.2 kV=0.12 Vminpu=0.8 Vmaxpu=1.2 model=1 kW=12.881427080810116 kvar=1.1210377991237672 Phases=1 yearly=com_kw_43878_pu

New Load.load_p1ulv1659_1 conn=wye bus1=p1ulv1659.1 kV=0.12 Vminpu=0.8 Vmaxpu=1.2 model=1 kW=12.881427080810116 kvar=1.1210377991237672 Phases=1 yearly=com_kw_43878_pu

New Load.load_p1ulv1659_2 conn=wye bus1=p1ulv1659.2 kV=0.12 Vminpu=0.8 Vmaxpu=1.2 model=1 kW=12.881427080810116 kvar=1.1210377991237672 Phases=1 yearly=com_kw_43878_pu

New Load.load_p1ulv1661_1 conn=wye bus1=p1ulv1661.1 kV=0.12 Vminpu=0.8 Vmaxpu=1.2 model=1 kW=5.850494669124461 kvar=0.8234601250580765 Phases=1 yearly=res_kw_25330_pu

New Load.load_p1ulv1661_2 conn=wye bus1=p1ulv1661.2 kV=0.12 Vminpu=0.8 Vmaxpu=1.2 model=1 kW=5.850494669124461 kvar=0.8234601250580765 Phases=1 yearly=res_kw_25330_pu

New Load.load_p1ulv1684_1 conn=wye bus1=p1ulv1684.1 kV=0.12 Vminpu=0.8 Vmaxpu=1.2 model=1 kW=5.850494669124461 kvar=0.8234601250580765 Phases=1 yearly=res_kw_25330_pu

New Load.load_p1ulv1684_2 conn=wye bus1=p1ulv1684.2 kV=0.12 Vminpu=0.8 Vmaxpu=1.2 model=1 kW=5.850494669124461 kvar=0.8234601250580765 Phases=1 yearly=res_kw_25330_pu

New Load.load_p1ulv1687_1 conn=wye bus1=p1ulv1687.1 kV=0.12 Vminpu=0.8 Vmaxpu=1.2 model=1 kW=6.64160122236253 kvar=1.2197705977517828 Phases=1 yearly=res_kw_4561_pu

New Load.load_p1ulv1687_2 conn=wye bus1=p1ulv1687.2 kV=0.12 Vminpu=0.8 Vmaxpu=1.2 model=1 kW=6.64160122236253 kvar=1.2197705977517828 Phases=1 yearly=res_kw_4561_pu

New Load.load_p1ulv1815_1 conn=wye bus1=p1ulv1815.1 kV=0.12 Vminpu=0.8 Vmaxpu=1.2 model=1 kW=12.566116051178085 kvar=1.7895180830228874 Phases=1 yearly=res_kw_12679_pu

New Load.load_p1ulv1815_2 conn=wye bus1=p1ulv1815.2 kV=0.12 Vminpu=0.8 Vmaxpu=1.2 model=1 kW=12.566116051178085 kvar=1.7895180830228874 Phases=1 yearly=res_kw_12679_pu

New Load.load_p1ulv1821_1 conn=wye bus1=p1ulv1821.1 kV=0.12 Vminpu=0.8 Vmaxpu=1.2 model=1 kW=5.850494669124461 kvar=0.8234601250580765 Phases=1 yearly=res_kw_25330_pu

New Load.load_p1ulv1821_2 conn=wye bus1=p1ulv1821.2 kV=0.12 Vminpu=0.8 Vmaxpu=1.2 model=1 kW=5.850494669124461 kvar=0.8234601250580765 Phases=1 yearly=res_kw_25330_pu

New Load.load_p1ulv1832_1 conn=wye bus1=p1ulv1832.1 kV=0.12 Vminpu=0.8 Vmaxpu=1.2 model=1 kW=3.4076541214547826 kvar=1.1225499298816486 Phases=1 yearly=res_kw_11924_pu

New Load.load_p1ulv1832_2 conn=wye bus1=p1ulv1832.2 kV=0.12 Vminpu=0.8 Vmaxpu=1.2 model=1 kW=3.4076541214547826 kvar=1.1225499298816486 Phases=1 yearly=res_kw_11924_pu

New Load.load_p1ulv1833_1 conn=wye bus1=p1ulv1833.1 kV=0.12 Vminpu=0.8 Vmaxpu=1.2 model=1 kW=2.6077776029016824 kvar=0.7673832328926916 Phases=1 yearly=res_kw_4467_pu

New Load.load_p1ulv1833_2 conn=wye bus1=p1ulv1833.2 kV=0.12 Vminpu=0.8 Vmaxpu=1.2 model=1 kW=2.6077776029016824 kvar=0.7673832328926916 Phases=1 yearly=res_kw_4467_pu

New Load.load_p1ulv1835_1 conn=wye bus1=p1ulv1835.1 kV=0.12 Vminpu=0.8 Vmaxpu=1.2 model=1 kW=12.881427080810116 kvar=1.1210377991237672 Phases=1 yearly=com_kw_43878_pu

New Load.load_p1ulv1835_2 conn=wye bus1=p1ulv1835.2 kV=0.12 Vminpu=0.8 Vmaxpu=1.2 model=1 kW=12.881427080810116 kvar=1.1210377991237672 Phases=1 yearly=com_kw_43878_pu

New Load.load_p1ulv1932_1 conn=wye bus1=p1ulv1932.1 kV=0.12 Vminpu=0.8 Vmaxpu=1.2 model=1 kW=4.234671040250859 kvar=0.013384370524726883 Phases=1 yearly=res_kw_35448_pu

New Load.load_p1ulv1932_2 conn=wye bus1=p1ulv1932.2 kV=0.12 Vminpu=0.8 Vmaxpu=1.2 model=1 kW=4.234671040250859 kvar=0.013384370524726883 Phases=1 yearly=res_kw_35448_pu

New Load.load_p1ulv1933_1 conn=wye bus1=p1ulv1933.1 kV=0.12 Vminpu=0.8 Vmaxpu=1.2 model=1 kW=2.620380046721935 kvar=0.7667224715579932 Phases=1 yearly=res_kw_33214_pu

New Load.load_p1ulv1933_2 conn=wye bus1=p1ulv1933.2 kV=0.12 Vminpu=0.8 Vmaxpu=1.2 model=1 kW=2.620380046721935 kvar=0.7667224715579932 Phases=1 yearly=res_kw_33214_pu

New Load.load_p1ulv1934_1 conn=wye bus1=p1ulv1934.1 kV=0.12 Vminpu=0.8 Vmaxpu=1.2 model=1 kW=4.234671040250859 kvar=0.013384370524726883 Phases=1 yearly=res_kw_35448_pu

New Load.load_p1ulv1934_2 conn=wye bus1=p1ulv1934.2 kV=0.12 Vminpu=0.8 Vmaxpu=1.2 model=1 kW=4.234671040250859 kvar=0.013384370524726883 Phases=1 yearly=res_kw_35448_pu

New Load.load_p1ulv1935_1 conn=wye bus1=p1ulv1935.1 kV=0.12 Vminpu=0.8 Vmaxpu=1.2 model=1 kW=6.020880629615802 kvar=1.1348477464380902 Phases=1 yearly=res_kw_4239_pu

New Load.load_p1ulv1935_2 conn=wye bus1=p1ulv1935.2 kV=0.12 Vminpu=0.8 Vmaxpu=1.2 model=1 kW=6.020880629615802 kvar=1.1348477464380902 Phases=1 yearly=res_kw_4239_pu

New Load.load_p1ulv1936_1 conn=wye bus1=p1ulv1936.1 kV=0.12 Vminpu=0.8 Vmaxpu=1.2 model=1 kW=2.620380046721935 kvar=0.7667224715579932 Phases=1 yearly=res_kw_33214_pu

New Load.load_p1ulv1936_2 conn=wye bus1=p1ulv1936.2 kV=0.12 Vminpu=0.8 Vmaxpu=1.2 model=1 kW=2.620380046721935 kvar=0.7667224715579932 Phases=1 yearly=res_kw_33214_pu

New Load.load_p1ulv1949_1 conn=wye bus1=p1ulv1949.1 kV=0.12 Vminpu=0.8 Vmaxpu=1.2 model=1 kW=12.881427080810116 kvar=1.1210377991237672 Phases=1 yearly=com_kw_43878_pu

New Load.load_p1ulv1949_2 conn=wye bus1=p1ulv1949.2 kV=0.12 Vminpu=0.8 Vmaxpu=1.2 model=1 kW=12.881427080810116 kvar=1.1210377991237672 Phases=1 yearly=com_kw_43878_pu

New Load.load_p1ulv1950_1 conn=wye bus1=p1ulv1950.1 kV=0.12 Vminpu=0.8 Vmaxpu=1.2 model=1 kW=4.234671040250859 kvar=0.013384370524726883 Phases=1 yearly=res_kw_35448_pu

New Load.load_p1ulv1950_2 conn=wye bus1=p1ulv1950.2 kV=0.12 Vminpu=0.8 Vmaxpu=1.2 model=1 kW=4.234671040250859 kvar=0.013384370524726883 Phases=1 yearly=res_kw_35448_pu

New Load.load_p1ulv1951 conn=wye bus1=p1ulv1951.1.2.3 kV=0.48 Vminpu=0.8 Vmaxpu=1.2 model=1 kW=44.2536834358633 kvar=10.908830382308812 Phases=3 yearly=com_kw_72_pu

New Load.load_p1ulv1952_1 conn=wye bus1=p1ulv1952.1 kV=0.12 Vminpu=0.8 Vmaxpu=1.2 model=1 kW=8.833714536102814 kvar=2.4947902405126197 Phases=1 yearly=com_kw_32992_pu

New Load.load_p1ulv1952_2 conn=wye bus1=p1ulv1952.2 kV=0.12 Vminpu=0.8 Vmaxpu=1.2 model=1 kW=8.833714536102814 kvar=2.4947902405126197 Phases=1 yearly=com_kw_32992_pu

New Load.load_p1ulv2066 conn=wye bus1=p1ulv2066.1.2.3 kV=0.48 Vminpu=0.8 Vmaxpu=1.2 model=1 kW=83.10098533797712 kvar=20.06247633864531 Phases=3 yearly=com_kw_794_pu

New Load.load_p1ulv2067_1 conn=wye bus1=p1ulv2067.1 kV=0.12 Vminpu=0.8 Vmaxpu=1.2 model=1 kW=3.4076541214547826 kvar=1.1225499298816486 Phases=1 yearly=res_kw_11924_pu

New Load.load_p1ulv2067_2 conn=wye bus1=p1ulv2067.2 kV=0.12 Vminpu=0.8 Vmaxpu=1.2 model=1 kW=3.4076541214547826 kvar=1.1225499298816486 Phases=1 yearly=res_kw_11924_pu

New Load.load_p1ulv2068 conn=wye bus1=p1ulv2068.1.2.3 kV=0.48 Vminpu=0.8 Vmaxpu=1.2 model=1 kW=26.80164396757859 kvar=6.547977381107224 Phases=3 yearly=com_kw_33007_pu

New Load.load_p1ulv2069_1 conn=wye bus1=p1ulv2069.1 kV=0.12 Vminpu=0.8 Vmaxpu=1.2 model=1 kW=9.957858863968443 kvar=2.996767143573338 Phases=1 yearly=res_kw_28011_pu

New Load.load_p1ulv2069_2 conn=wye bus1=p1ulv2069.2 kV=0.12 Vminpu=0.8 Vmaxpu=1.2 model=1 kW=9.957858863968443 kvar=2.996767143573338 Phases=1 yearly=res_kw_28011_pu

New Load.load_p1ulv2076_1 conn=wye bus1=p1ulv2076.1 kV=0.12 Vminpu=0.8 Vmaxpu=1.2 model=1 kW=12.881427080810116 kvar=1.1210377991237672 Phases=1 yearly=com_kw_43878_pu

New Load.load_p1ulv2076_2 conn=wye bus1=p1ulv2076.2 kV=0.12 Vminpu=0.8 Vmaxpu=1.2 model=1 kW=12.881427080810116 kvar=1.1210377991237672 Phases=1 yearly=com_kw_43878_pu

New Load.load_p1ulv2077_1 conn=wye bus1=p1ulv2077.1 kV=0.12 Vminpu=0.8 Vmaxpu=1.2 model=1 kW=3.4076541214547826 kvar=1.1225499298816486 Phases=1 yearly=res_kw_11924_pu

New Load.load_p1ulv2077_2 conn=wye bus1=p1ulv2077.2 kV=0.12 Vminpu=0.8 Vmaxpu=1.2 model=1 kW=3.4076541214547826 kvar=1.1225499298816486 Phases=1 yearly=res_kw_11924_pu

New Load.load_p1ulv2078_1 conn=wye bus1=p1ulv2078.1 kV=0.12 Vminpu=0.8 Vmaxpu=1.2 model=1 kW=3.4076541214547826 kvar=1.1225499298816486 Phases=1 yearly=res_kw_11924_pu

New Load.load_p1ulv2078_2 conn=wye bus1=p1ulv2078.2 kV=0.12 Vminpu=0.8 Vmaxpu=1.2 model=1 kW=3.4076541214547826 kvar=1.1225499298816486 Phases=1 yearly=res_kw_11924_pu

New Load.load_p1ulv2090_1 conn=wye bus1=p1ulv2090.1 kV=0.12 Vminpu=0.8 Vmaxpu=1.2 model=1 kW=5.185081035308567 kvar=1.3417185421886457 Phases=1 yearly=res_kw_11202_pu

New Load.load_p1ulv2090_2 conn=wye bus1=p1ulv2090.2 kV=0.12 Vminpu=0.8 Vmaxpu=1.2 model=1 kW=5.185081035308567 kvar=1.3417185421886457 Phases=1 yearly=res_kw_11202_pu

New Load.load_p1ulv2205_1 conn=wye bus1=p1ulv2205.1 kV=0.12 Vminpu=0.8 Vmaxpu=1.2 model=1 kW=7.565132937504865 kvar=1.5798521766052305 Phases=1 yearly=res_kw_42353_pu

New Load.load_p1ulv2205_2 conn=wye bus1=p1ulv2205.2 kV=0.12 Vminpu=0.8 Vmaxpu=1.2 model=1 kW=7.565132937504865 kvar=1.5798521766052305 Phases=1 yearly=res_kw_42353_pu

New Load.load_p1ulv2206_1 conn=wye bus1=p1ulv2206.1 kV=0.12 Vminpu=0.8 Vmaxpu=1.2 model=1 kW=6.542796606095953 kvar=1.3738960086195124 Phases=1 yearly=res_kw_4691_pu

New Load.load_p1ulv2206_2 conn=wye bus1=p1ulv2206.2 kV=0.12 Vminpu=0.8 Vmaxpu=1.2 model=1 kW=6.542796606095953 kvar=1.3738960086195124 Phases=1 yearly=res_kw_4691_pu

New Load.load_p1ulv2222 conn=wye bus1=p1ulv2222.1.2.3 kV=0.48 Vminpu=0.8 Vmaxpu=1.2 model=1 kW=83.10098533797712 kvar=20.06247633864531 Phases=3 yearly=com_kw_794_pu

New Load.load_p1ulv2223_1 conn=wye bus1=p1ulv2223.1 kV=0.12 Vminpu=0.8 Vmaxpu=1.2 model=1 kW=4.632153192562984 kvar=1.0646728405756793 Phases=1 yearly=res_kw_11268_pu

New Load.load_p1ulv2223_2 conn=wye bus1=p1ulv2223.2 kV=0.12 Vminpu=0.8 Vmaxpu=1.2 model=1 kW=4.632153192562984 kvar=1.0646728405756793 Phases=1 yearly=res_kw_11268_pu

New Load.load_p1ulv2224_1 conn=wye bus1=p1ulv2224.1 kV=0.12 Vminpu=0.8 Vmaxpu=1.2 model=1 kW=12.881427080810116 kvar=1.1210377991237672 Phases=1 yearly=com_kw_43878_pu

New Load.load_p1ulv2224_2 conn=wye bus1=p1ulv2224.2 kV=0.12 Vminpu=0.8 Vmaxpu=1.2 model=1 kW=12.881427080810116 kvar=1.1210377991237672 Phases=1 yearly=com_kw_43878_pu

New Load.load_p1ulv2226_1 conn=wye bus1=p1ulv2226.1 kV=0.12 Vminpu=0.8 Vmaxpu=1.2 model=1 kW=12.881427080810116 kvar=1.1210377991237672 Phases=1 yearly=com_kw_43878_pu

New Load.load_p1ulv2226_2 conn=wye bus1=p1ulv2226.2 kV=0.12 Vminpu=0.8 Vmaxpu=1.2 model=1 kW=12.881427080810116 kvar=1.1210377991237672 Phases=1 yearly=com_kw_43878_pu

New Load.load_p1ulv2326_1 conn=wye bus1=p1ulv2326.1 kV=0.12 Vminpu=0.8 Vmaxpu=1.2 model=1 kW=12.881427080810116 kvar=1.1210377991237672 Phases=1 yearly=com_kw_43878_pu

New Load.load_p1ulv2326_2 conn=wye bus1=p1ulv2326.2 kV=0.12 Vminpu=0.8 Vmaxpu=1.2 model=1 kW=12.881427080810116 kvar=1.1210377991237672 Phases=1 yearly=com_kw_43878_pu

New Load.load_p1ulv2330_1 conn=wye bus1=p1ulv2330.1 kV=0.12 Vminpu=0.8 Vmaxpu=1.2 model=1 kW=2.6077776029016824 kvar=0.7673832328926916 Phases=1 yearly=res_kw_4467_pu

New Load.load_p1ulv2330_2 conn=wye bus1=p1ulv2330.2 kV=0.12 Vminpu=0.8 Vmaxpu=1.2 model=1 kW=2.6077776029016824 kvar=0.7673832328926916 Phases=1 yearly=res_kw_4467_pu

New Load.load_p1ulv2331_1 conn=wye bus1=p1ulv2331.1 kV=0.12 Vminpu=0.8 Vmaxpu=1.2 model=1 kW=5.850494669124461 kvar=0.8234601250580765 Phases=1 yearly=res_kw_25330_pu

New Load.load_p1ulv2331_2 conn=wye bus1=p1ulv2331.2 kV=0.12 Vminpu=0.8 Vmaxpu=1.2 model=1 kW=5.850494669124461 kvar=0.8234601250580765 Phases=1 yearly=res_kw_25330_pu

New Load.load_p1ulv2341_1 conn=wye bus1=p1ulv2341.1 kV=0.12 Vminpu=0.8 Vmaxpu=1.2 model=1 kW=4.234671040250859 kvar=0.013384370524726883 Phases=1 yearly=res_kw_35448_pu

New Load.load_p1ulv2341_2 conn=wye bus1=p1ulv2341.2 kV=0.12 Vminpu=0.8 Vmaxpu=1.2 model=1 kW=4.234671040250859 kvar=0.013384370524726883 Phases=1 yearly=res_kw_35448_pu

New Load.load_p1ulv2342 conn=wye bus1=p1ulv2342.1.2.3 kV=0.48 Vminpu=0.8 Vmaxpu=1.2 model=1 kW=44.2536834358633 kvar=10.908830382308812 Phases=3 yearly=com_kw_72_pu

New Load.load_p1ulv2343_1 conn=wye bus1=p1ulv2343.1 kV=0.12 Vminpu=0.8 Vmaxpu=1.2 model=1 kW=6.542796606095953 kvar=1.3738960086195124 Phases=1 yearly=res_kw_4691_pu

New Load.load_p1ulv2343_2 conn=wye bus1=p1ulv2343.2 kV=0.12 Vminpu=0.8 Vmaxpu=1.2 model=1 kW=6.542796606095953 kvar=1.3738960086195124 Phases=1 yearly=res_kw_4691_pu

New Load.load_p1ulv2344_1 conn=wye bus1=p1ulv2344.1 kV=0.12 Vminpu=0.8 Vmaxpu=1.2 model=1 kW=3.2172356677812353 kvar=1.4107078304786496 Phases=1 yearly=res_kw_6317_pu

New Load.load_p1ulv2344_2 conn=wye bus1=p1ulv2344.2 kV=0.12 Vminpu=0.8 Vmaxpu=1.2 model=1 kW=3.2172356677812353 kvar=1.4107078304786496 Phases=1 yearly=res_kw_6317_pu

New Load.load_p1ulv2345_1 conn=wye bus1=p1ulv2345.1 kV=0.12 Vminpu=0.8 Vmaxpu=1.2 model=1 kW=3.4076541214547826 kvar=1.1225499298816486 Phases=1 yearly=res_kw_11924_pu

New Load.load_p1ulv2345_2 conn=wye bus1=p1ulv2345.2 kV=0.12 Vminpu=0.8 Vmaxpu=1.2 model=1 kW=3.4076541214547826 kvar=1.1225499298816486 Phases=1 yearly=res_kw_11924_pu

New Load.load_p1ulv2437_1 conn=wye bus1=p1ulv2437.1 kV=0.12 Vminpu=0.8 Vmaxpu=1.2 model=1 kW=5.850494669124461 kvar=0.8234601250580765 Phases=1 yearly=res_kw_25330_pu

New Load.load_p1ulv2437_2 conn=wye bus1=p1ulv2437.2 kV=0.12 Vminpu=0.8 Vmaxpu=1.2 model=1 kW=5.850494669124461 kvar=0.8234601250580765 Phases=1 yearly=res_kw_25330_pu

New Load.load_p1ulv2445_1 conn=wye bus1=p1ulv2445.1 kV=0.12 Vminpu=0.8 Vmaxpu=1.2 model=1 kW=2.6077776029016824 kvar=0.7673832328926916 Phases=1 yearly=res_kw_4467_pu

New Load.load_p1ulv2445_2 conn=wye bus1=p1ulv2445.2 kV=0.12 Vminpu=0.8 Vmaxpu=1.2 model=1 kW=2.6077776029016824 kvar=0.7673832328926916 Phases=1 yearly=res_kw_4467_pu

New Load.load_p1ulv2462 conn=wye bus1=p1ulv2462.1.2.3 kV=0.48 Vminpu=0.8 Vmaxpu=1.2 model=1 kW=44.2536834358633 kvar=10.908830382308812 Phases=3 yearly=com_kw_72_pu

New Load.load_p1ulv2463_1 conn=wye bus1=p1ulv2463.1 kV=0.12 Vminpu=0.8 Vmaxpu=1.2 model=1 kW=12.881427080810116 kvar=1.1210377991237672 Phases=1 yearly=com_kw_43878_pu

New Load.load_p1ulv2463_2 conn=wye bus1=p1ulv2463.2 kV=0.12 Vminpu=0.8 Vmaxpu=1.2 model=1 kW=12.881427080810116 kvar=1.1210377991237672 Phases=1 yearly=com_kw_43878_pu

New Load.load_p1ulv2465 conn=wye bus1=p1ulv2465.1.2.3 kV=0.48 Vminpu=0.8 Vmaxpu=1.2 model=1 kW=44.2536834358633 kvar=10.908830382308812 Phases=3 yearly=com_kw_72_pu

New Load.load_p1ulv2592_1 conn=wye bus1=p1ulv2592.1 kV=0.12 Vminpu=0.8 Vmaxpu=1.2 model=1 kW=5.850494669124461 kvar=0.8234601250580765 Phases=1 yearly=res_kw_25330_pu

New Load.load_p1ulv2592_2 conn=wye bus1=p1ulv2592.2 kV=0.12 Vminpu=0.8 Vmaxpu=1.2 model=1 kW=5.850494669124461 kvar=0.8234601250580765 Phases=1 yearly=res_kw_25330_pu

New Load.load_p1ulv2593_1 conn=wye bus1=p1ulv2593.1 kV=0.12 Vminpu=0.8 Vmaxpu=1.2 model=1 kW=6.542796606095953 kvar=1.3738960086195124 Phases=1 yearly=res_kw_4691_pu

New Load.load_p1ulv2593_2 conn=wye bus1=p1ulv2593.2 kV=0.12 Vminpu=0.8 Vmaxpu=1.2 model=1 kW=6.542796606095953 kvar=1.3738960086195124 Phases=1 yearly=res_kw_4691_pu

New Load.load_p1ulv2594_1 conn=wye bus1=p1ulv2594.1 kV=0.12 Vminpu=0.8 Vmaxpu=1.2 model=1 kW=5.691543528113089 kvar=1.5564485607853333 Phases=1 yearly=res_kw_9613_pu

New Load.load_p1ulv2594_2 conn=wye bus1=p1ulv2594.2 kV=0.12 Vminpu=0.8 Vmaxpu=1.2 model=1 kW=5.691543528113089 kvar=1.5564485607853333 Phases=1 yearly=res_kw_9613_pu

New Load.load_p1ulv2597_1 conn=wye bus1=p1ulv2597.1 kV=0.12 Vminpu=0.8 Vmaxpu=1.2 model=1 kW=2.6077776029016824 kvar=0.7673832328926916 Phases=1 yearly=res_kw_4467_pu

New Load.load_p1ulv2597_2 conn=wye bus1=p1ulv2597.2 kV=0.12 Vminpu=0.8 Vmaxpu=1.2 model=1 kW=2.6077776029016824 kvar=0.7673832328926916 Phases=1 yearly=res_kw_4467_pu

New Load.load_p1ulv2604_1 conn=wye bus1=p1ulv2604.1 kV=0.12 Vminpu=0.8 Vmaxpu=1.2 model=1 kW=6.64160122236253 kvar=1.2197705977517828 Phases=1 yearly=res_kw_4561_pu

New Load.load_p1ulv2604_2 conn=wye bus1=p1ulv2604.2 kV=0.12 Vminpu=0.8 Vmaxpu=1.2 model=1 kW=6.64160122236253 kvar=1.2197705977517828 Phases=1 yearly=res_kw_4561_pu

New Load.load_p1ulv2698_1 conn=wye bus1=p1ulv2698.1 kV=0.12 Vminpu=0.8 Vmaxpu=1.2 model=1 kW=12.881427080810116 kvar=1.1210377991237672 Phases=1 yearly=com_kw_43878_pu

New Load.load_p1ulv2698_2 conn=wye bus1=p1ulv2698.2 kV=0.12 Vminpu=0.8 Vmaxpu=1.2 model=1 kW=12.881427080810116 kvar=1.1210377991237672 Phases=1 yearly=com_kw_43878_pu

New Load.load_p1ulv2714_1 conn=wye bus1=p1ulv2714.1 kV=0.12 Vminpu=0.8 Vmaxpu=1.2 model=1 kW=8.833714536102814 kvar=2.4947902405126197 Phases=1 yearly=com_kw_32992_pu

New Load.load_p1ulv2714_2 conn=wye bus1=p1ulv2714.2 kV=0.12 Vminpu=0.8 Vmaxpu=1.2 model=1 kW=8.833714536102814 kvar=2.4947902405126197 Phases=1 yearly=com_kw_32992_pu

New Load.load_p1ulv2715_1 conn=wye bus1=p1ulv2715.1 kV=0.12 Vminpu=0.8 Vmaxpu=1.2 model=1 kW=12.881427080810116 kvar=1.1210377991237672 Phases=1 yearly=com_kw_43878_pu

New Load.load_p1ulv2715_2 conn=wye bus1=p1ulv2715.2 kV=0.12 Vminpu=0.8 Vmaxpu=1.2 model=1 kW=12.881427080810116 kvar=1.1210377991237672 Phases=1 yearly=com_kw_43878_pu

New Load.load_p1ulv2717_1 conn=wye bus1=p1ulv2717.1 kV=0.12 Vminpu=0.8 Vmaxpu=1.2 model=1 kW=3.4076541214547826 kvar=1.1225499298816486 Phases=1 yearly=res_kw_11924_pu

New Load.load_p1ulv2717_2 conn=wye bus1=p1ulv2717.2 kV=0.12 Vminpu=0.8 Vmaxpu=1.2 model=1 kW=3.4076541214547826 kvar=1.1225499298816486 Phases=1 yearly=res_kw_11924_pu

New Load.load_p1ulv2718_1 conn=wye bus1=p1ulv2718.1 kV=0.12 Vminpu=0.8 Vmaxpu=1.2 model=1 kW=12.881427080810116 kvar=1.1210377991237672 Phases=1 yearly=com_kw_43878_pu

New Load.load_p1ulv2718_2 conn=wye bus1=p1ulv2718.2 kV=0.12 Vminpu=0.8 Vmaxpu=1.2 model=1 kW=12.881427080810116 kvar=1.1210377991237672 Phases=1 yearly=com_kw_43878_pu

New Load.load_p1ulv2804_1 conn=wye bus1=p1ulv2804.1 kV=0.12 Vminpu=0.8 Vmaxpu=1.2 model=1 kW=4.785301386067758 kvar=0.09736183966574659 Phases=1 yearly=res_kw_13247_pu

New Load.load_p1ulv2804_2 conn=wye bus1=p1ulv2804.2 kV=0.12 Vminpu=0.8 Vmaxpu=1.2 model=1 kW=4.785301386067758 kvar=0.09736183966574659 Phases=1 yearly=res_kw_13247_pu

New Load.load_p1ulv2805_1 conn=wye bus1=p1ulv2805.1 kV=0.12 Vminpu=0.8 Vmaxpu=1.2 model=1 kW=5.850494669124461 kvar=0.8234601250580765 Phases=1 yearly=res_kw_25330_pu

New Load.load_p1ulv2805_2 conn=wye bus1=p1ulv2805.2 kV=0.12 Vminpu=0.8 Vmaxpu=1.2 model=1 kW=5.850494669124461 kvar=0.8234601250580765 Phases=1 yearly=res_kw_25330_pu

New Load.load_p1ulv2806_1 conn=wye bus1=p1ulv2806.1 kV=0.12 Vminpu=0.8 Vmaxpu=1.2 model=1 kW=5.691543528113089 kvar=1.5564485607853333 Phases=1 yearly=res_kw_9613_pu

New Load.load_p1ulv2806_2 conn=wye bus1=p1ulv2806.2 kV=0.12 Vminpu=0.8 Vmaxpu=1.2 model=1 kW=5.691543528113089 kvar=1.5564485607853333 Phases=1 yearly=res_kw_9613_pu

New Load.load_p1ulv2807_1 conn=wye bus1=p1ulv2807.1 kV=0.12 Vminpu=0.8 Vmaxpu=1.2 model=1 kW=4.258938582309032 kvar=0.10391185845879562 Phases=1 yearly=res_kw_25584_pu

New Load.load_p1ulv2807_2 conn=wye bus1=p1ulv2807.2 kV=0.12 Vminpu=0.8 Vmaxpu=1.2 model=1 kW=4.258938582309032 kvar=0.10391185845879562 Phases=1 yearly=res_kw_25584_pu

New Load.load_p1ulv2813 conn=wye bus1=p1ulv2813.1.2.3 kV=0.48 Vminpu=0.8 Vmaxpu=1.2 model=1 kW=83.10098533797712 kvar=20.06247633864531 Phases=3 yearly=com_kw_794_pu

New Load.load_p1ulv2814_1 conn=wye bus1=p1ulv2814.1 kV=0.12 Vminpu=0.8 Vmaxpu=1.2 model=1 kW=8.60776795895911 kvar=2.1893473513523944 Phases=1 yearly=res_kw_17978_pu

New Load.load_p1ulv2814_2 conn=wye bus1=p1ulv2814.2 kV=0.12 Vminpu=0.8 Vmaxpu=1.2 model=1 kW=8.60776795895911 kvar=2.1893473513523944 Phases=1 yearly=res_kw_17978_pu

New Load.load_p1ulv2816_1 conn=wye bus1=p1ulv2816.1 kV=0.12 Vminpu=0.8 Vmaxpu=1.2 model=1 kW=2.620380046721935 kvar=0.7667224715579932 Phases=1 yearly=res_kw_33214_pu

New Load.load_p1ulv2816_2 conn=wye bus1=p1ulv2816.2 kV=0.12 Vminpu=0.8 Vmaxpu=1.2 model=1 kW=2.620380046721935 kvar=0.7667224715579932 Phases=1 yearly=res_kw_33214_pu

New Load.load_p1ulv2817_1 conn=wye bus1=p1ulv2817.1 kV=0.12 Vminpu=0.8 Vmaxpu=1.2 model=1 kW=5.850494669124461 kvar=0.8234601250580765 Phases=1 yearly=res_kw_25330_pu

New Load.load_p1ulv2817_2 conn=wye bus1=p1ulv2817.2 kV=0.12 Vminpu=0.8 Vmaxpu=1.2 model=1 kW=5.850494669124461 kvar=0.8234601250580765 Phases=1 yearly=res_kw_25330_pu

New Load.load_p1ulv2829_1 conn=wye bus1=p1ulv2829.1 kV=0.12 Vminpu=0.8 Vmaxpu=1.2 model=1 kW=2.6077776029016824 kvar=0.7673832328926916 Phases=1 yearly=res_kw_4467_pu

New Load.load_p1ulv2829_2 conn=wye bus1=p1ulv2829.2 kV=0.12 Vminpu=0.8 Vmaxpu=1.2 model=1 kW=2.6077776029016824 kvar=0.7673832328926916 Phases=1 yearly=res_kw_4467_pu

New Load.load_p1ulv2830_1 conn=wye bus1=p1ulv2830.1 kV=0.12 Vminpu=0.8 Vmaxpu=1.2 model=1 kW=12.881427080810116 kvar=1.1210377991237672 Phases=1 yearly=com_kw_43878_pu

New Load.load_p1ulv2830_2 conn=wye bus1=p1ulv2830.2 kV=0.12 Vminpu=0.8 Vmaxpu=1.2 model=1 kW=12.881427080810116 kvar=1.1210377991237672 Phases=1 yearly=com_kw_43878_pu

New Load.load_p1ulv2832_1 conn=wye bus1=p1ulv2832.1 kV=0.12 Vminpu=0.8 Vmaxpu=1.2 model=1 kW=12.881427080810116 kvar=1.1210377991237672 Phases=1 yearly=com_kw_43878_pu

New Load.load_p1ulv2832_2 conn=wye bus1=p1ulv2832.2 kV=0.12 Vminpu=0.8 Vmaxpu=1.2 model=1 kW=12.881427080810116 kvar=1.1210377991237672 Phases=1 yearly=com_kw_43878_pu

New Load.load_p1ulv2833 conn=wye bus1=p1ulv2833.1.2.3 kV=0.48 Vminpu=0.8 Vmaxpu=1.2 model=1 kW=44.2536834358633 kvar=10.908830382308812 Phases=3 yearly=com_kw_72_pu

New Load.load_p1ulv2835_1 conn=wye bus1=p1ulv2835.1 kV=0.12 Vminpu=0.8 Vmaxpu=1.2 model=1 kW=12.881427080810116 kvar=1.1210377991237672 Phases=1 yearly=com_kw_43878_pu

New Load.load_p1ulv2835_2 conn=wye bus1=p1ulv2835.2 kV=0.12 Vminpu=0.8 Vmaxpu=1.2 model=1 kW=12.881427080810116 kvar=1.1210377991237672 Phases=1 yearly=com_kw_43878_pu

New Load.load_p1ulv2930_1 conn=wye bus1=p1ulv2930.1 kV=0.12 Vminpu=0.8 Vmaxpu=1.2 model=1 kW=5.671977786079407 kvar=1.6318531210492404 Phases=1 yearly=res_kw_10107_pu

New Load.load_p1ulv2930_2 conn=wye bus1=p1ulv2930.2 kV=0.12 Vminpu=0.8 Vmaxpu=1.2 model=1 kW=5.671977786079407 kvar=1.6318531210492404 Phases=1 yearly=res_kw_10107_pu

New Load.load_p1ulv2931_1 conn=wye bus1=p1ulv2931.1 kV=0.12 Vminpu=0.8 Vmaxpu=1.2 model=1 kW=12.881427080810116 kvar=1.1210377991237672 Phases=1 yearly=com_kw_43878_pu

New Load.load_p1ulv2931_2 conn=wye bus1=p1ulv2931.2 kV=0.12 Vminpu=0.8 Vmaxpu=1.2 model=1 kW=12.881427080810116 kvar=1.1210377991237672 Phases=1 yearly=com_kw_43878_pu

New Load.load_p1ulv2932_1 conn=wye bus1=p1ulv2932.1 kV=0.12 Vminpu=0.8 Vmaxpu=1.2 model=1 kW=5.850494669124461 kvar=0.8234601250580765 Phases=1 yearly=res_kw_25330_pu

New Load.load_p1ulv2932_2 conn=wye bus1=p1ulv2932.2 kV=0.12 Vminpu=0.8 Vmaxpu=1.2 model=1 kW=5.850494669124461 kvar=0.8234601250580765 Phases=1 yearly=res_kw_25330_pu

New Load.load_p1ulv2938_1 conn=wye bus1=p1ulv2938.1 kV=0.12 Vminpu=0.8 Vmaxpu=1.2 model=1 kW=2.6077776029016824 kvar=0.7673832328926916 Phases=1 yearly=res_kw_4467_pu

New Load.load_p1ulv2938_2 conn=wye bus1=p1ulv2938.2 kV=0.12 Vminpu=0.8 Vmaxpu=1.2 model=1 kW=2.6077776029016824 kvar=0.7673832328926916 Phases=1 yearly=res_kw_4467_pu

New Load.load_p1ulv2942_1 conn=wye bus1=p1ulv2942.1 kV=0.12 Vminpu=0.8 Vmaxpu=1.2 model=1 kW=8.60776795895911 kvar=2.1893473513523944 Phases=1 yearly=res_kw_17978_pu

New Load.load_p1ulv2942_2 conn=wye bus1=p1ulv2942.2 kV=0.12 Vminpu=0.8 Vmaxpu=1.2 model=1 kW=8.60776795895911 kvar=2.1893473513523944 Phases=1 yearly=res_kw_17978_pu

New Load.load_p1ulv2953_1 conn=wye bus1=p1ulv2953.1 kV=0.12 Vminpu=0.8 Vmaxpu=1.2 model=1 kW=5.691543528113089 kvar=1.5564485607853333 Phases=1 yearly=res_kw_9613_pu

New Load.load_p1ulv2953_2 conn=wye bus1=p1ulv2953.2 kV=0.12 Vminpu=0.8 Vmaxpu=1.2 model=1 kW=5.691543528113089 kvar=1.5564485607853333 Phases=1 yearly=res_kw_9613_pu

New Load.load_p1ulv2954_1 conn=wye bus1=p1ulv2954.1 kV=0.12 Vminpu=0.8 Vmaxpu=1.2 model=1 kW=12.881427080810116 kvar=1.1210377991237672 Phases=1 yearly=com_kw_43878_pu

New Load.load_p1ulv2954_2 conn=wye bus1=p1ulv2954.2 kV=0.12 Vminpu=0.8 Vmaxpu=1.2 model=1 kW=12.881427080810116 kvar=1.1210377991237672 Phases=1 yearly=com_kw_43878_pu

New Load.load_p1ulv2955_1 conn=wye bus1=p1ulv2955.1 kV=0.12 Vminpu=0.8 Vmaxpu=1.2 model=1 kW=2.620380046721935 kvar=0.7667224715579932 Phases=1 yearly=res_kw_33214_pu

New Load.load_p1ulv2955_2 conn=wye bus1=p1ulv2955.2 kV=0.12 Vminpu=0.8 Vmaxpu=1.2 model=1 kW=2.620380046721935 kvar=0.7667224715579932 Phases=1 yearly=res_kw_33214_pu

New Load.load_p1ulv2956_1 conn=wye bus1=p1ulv2956.1 kV=0.12 Vminpu=0.8 Vmaxpu=1.2 model=1 kW=2.6077776029016824 kvar=0.7673832328926916 Phases=1 yearly=res_kw_4467_pu

New Load.load_p1ulv2956_2 conn=wye bus1=p1ulv2956.2 kV=0.12 Vminpu=0.8 Vmaxpu=1.2 model=1 kW=2.6077776029016824 kvar=0.7673832328926916 Phases=1 yearly=res_kw_4467_pu

New Load.load_p1ulv3076_1 conn=wye bus1=p1ulv3076.1 kV=0.12 Vminpu=0.8 Vmaxpu=1.2 model=1 kW=5.691543528113089 kvar=1.5564485607853333 Phases=1 yearly=res_kw_9613_pu

New Load.load_p1ulv3076_2 conn=wye bus1=p1ulv3076.2 kV=0.12 Vminpu=0.8 Vmaxpu=1.2 model=1 kW=5.691543528113089 kvar=1.5564485607853333 Phases=1 yearly=res_kw_9613_pu

New Load.load_p1ulv3081_1 conn=wye bus1=p1ulv3081.1 kV=0.12 Vminpu=0.8 Vmaxpu=1.2 model=1 kW=13.747389169166972 kvar=4.63444149564882 Phases=1 yearly=res_kw_15223_pu

New Load.load_p1ulv3081_2 conn=wye bus1=p1ulv3081.2 kV=0.12 Vminpu=0.8 Vmaxpu=1.2 model=1 kW=13.747389169166972 kvar=4.63444149564882 Phases=1 yearly=res_kw_15223_pu

New Load.load_p1ulv3094_1 conn=wye bus1=p1ulv3094.1 kV=0.12 Vminpu=0.8 Vmaxpu=1.2 model=1 kW=2.9860142099366884 kvar=0.6854876615384587 Phases=1 yearly=com_kw_36107_pu

New Load.load_p1ulv3094_2 conn=wye bus1=p1ulv3094.2 kV=0.12 Vminpu=0.8 Vmaxpu=1.2 model=1 kW=2.9860142099366884 kvar=0.6854876615384587 Phases=1 yearly=com_kw_36107_pu

New Load.load_p1ulv3095_1 conn=wye bus1=p1ulv3095.1 kV=0.12 Vminpu=0.8 Vmaxpu=1.2 model=1 kW=2.6077776029016824 kvar=0.7673832328926916 Phases=1 yearly=res_kw_4467_pu

New Load.load_p1ulv3095_2 conn=wye bus1=p1ulv3095.2 kV=0.12 Vminpu=0.8 Vmaxpu=1.2 model=1 kW=2.6077776029016824 kvar=0.7673832328926916 Phases=1 yearly=res_kw_4467_pu

New Load.load_p1ulv3178 conn=wye bus1=p1ulv3178.1.2.3 kV=0.48 Vminpu=0.8 Vmaxpu=1.2 model=1 kW=83.10098533797712 kvar=20.06247633864531 Phases=3 yearly=com_kw_794_pu

New Load.load_p1ulv3183_1 conn=wye bus1=p1ulv3183.1 kV=0.12 Vminpu=0.8 Vmaxpu=1.2 model=1 kW=5.185081035308567 kvar=1.3417185421886457 Phases=1 yearly=res_kw_11202_pu

New Load.load_p1ulv3183_2 conn=wye bus1=p1ulv3183.2 kV=0.12 Vminpu=0.8 Vmaxpu=1.2 model=1 kW=5.185081035308567 kvar=1.3417185421886457 Phases=1 yearly=res_kw_11202_pu

New Load.load_p1ulv3196_1 conn=wye bus1=p1ulv3196.1 kV=0.12 Vminpu=0.8 Vmaxpu=1.2 model=1 kW=12.881427080810116 kvar=1.1210377991237672 Phases=1 yearly=com_kw_43878_pu

New Load.load_p1ulv3196_2 conn=wye bus1=p1ulv3196.2 kV=0.12 Vminpu=0.8 Vmaxpu=1.2 model=1 kW=12.881427080810116 kvar=1.1210377991237672 Phases=1 yearly=com_kw_43878_pu

New Load.load_p1ulv3197_1 conn=wye bus1=p1ulv3197.1 kV=0.12 Vminpu=0.8 Vmaxpu=1.2 model=1 kW=3.4076541214547826 kvar=1.1225499298816486 Phases=1 yearly=res_kw_11924_pu

New Load.load_p1ulv3197_2 conn=wye bus1=p1ulv3197.2 kV=0.12 Vminpu=0.8 Vmaxpu=1.2 model=1 kW=3.4076541214547826 kvar=1.1225499298816486 Phases=1 yearly=res_kw_11924_pu

New Load.load_p1ulv3198_1 conn=wye bus1=p1ulv3198.1 kV=0.12 Vminpu=0.8 Vmaxpu=1.2 model=1 kW=6.542796606095953 kvar=1.3738960086195124 Phases=1 yearly=res_kw_4691_pu

New Load.load_p1ulv3198_2 conn=wye bus1=p1ulv3198.2 kV=0.12 Vminpu=0.8 Vmaxpu=1.2 model=1 kW=6.542796606095953 kvar=1.3738960086195124 Phases=1 yearly=res_kw_4691_pu

New Load.load_p1ulv3199 conn=wye bus1=p1ulv3199.1.2.3 kV=0.48 Vminpu=0.8 Vmaxpu=1.2 model=1 kW=44.2536834358633 kvar=10.908830382308812 Phases=3 yearly=com_kw_72_pu

New Load.load_p1ulv3303_1 conn=wye bus1=p1ulv3303.1 kV=0.12 Vminpu=0.8 Vmaxpu=1.2 model=1 kW=5.691543528113089 kvar=1.5564485607853333 Phases=1 yearly=res_kw_9613_pu

New Load.load_p1ulv3303_2 conn=wye bus1=p1ulv3303.2 kV=0.12 Vminpu=0.8 Vmaxpu=1.2 model=1 kW=5.691543528113089 kvar=1.5564485607853333 Phases=1 yearly=res_kw_9613_pu

New Load.load_p1ulv3312_1 conn=wye bus1=p1ulv3312.1 kV=0.12 Vminpu=0.8 Vmaxpu=1.2 model=1 kW=5.850494669124461 kvar=0.8234601250580765 Phases=1 yearly=res_kw_25330_pu

New Load.load_p1ulv3312_2 conn=wye bus1=p1ulv3312.2 kV=0.12 Vminpu=0.8 Vmaxpu=1.2 model=1 kW=5.850494669124461 kvar=0.8234601250580765 Phases=1 yearly=res_kw_25330_pu

New Load.load_p1ulv3313_1 conn=wye bus1=p1ulv3313.1 kV=0.12 Vminpu=0.8 Vmaxpu=1.2 model=1 kW=3.2172356677812353 kvar=1.4107078304786496 Phases=1 yearly=res_kw_6317_pu

New Load.load_p1ulv3313_2 conn=wye bus1=p1ulv3313.2 kV=0.12 Vminpu=0.8 Vmaxpu=1.2 model=1 kW=3.2172356677812353 kvar=1.4107078304786496 Phases=1 yearly=res_kw_6317_pu

New Load.load_p1ulv3315_1 conn=wye bus1=p1ulv3315.1 kV=0.12 Vminpu=0.8 Vmaxpu=1.2 model=1 kW=10.343121490967597 kvar=2.662534196475088 Phases=1 yearly=res_kw_9726_pu

New Load.load_p1ulv3315_2 conn=wye bus1=p1ulv3315.2 kV=0.12 Vminpu=0.8 Vmaxpu=1.2 model=1 kW=10.343121490967597 kvar=2.662534196475088 Phases=1 yearly=res_kw_9726_pu

New Load.load_p1ulv3316_1 conn=wye bus1=p1ulv3316.1 kV=0.12 Vminpu=0.8 Vmaxpu=1.2 model=1 kW=2.6077776029016824 kvar=0.7673832328926916 Phases=1 yearly=res_kw_4467_pu

New Load.load_p1ulv3316_2 conn=wye bus1=p1ulv3316.2 kV=0.12 Vminpu=0.8 Vmaxpu=1.2 model=1 kW=2.6077776029016824 kvar=0.7673832328926916 Phases=1 yearly=res_kw_4467_pu

New Load.load_p1ulv3326_1 conn=wye bus1=p1ulv3326.1 kV=0.12 Vminpu=0.8 Vmaxpu=1.2 model=1 kW=12.881427080810116 kvar=1.1210377991237672 Phases=1 yearly=com_kw_43878_pu

New Load.load_p1ulv3326_2 conn=wye bus1=p1ulv3326.2 kV=0.12 Vminpu=0.8 Vmaxpu=1.2 model=1 kW=12.881427080810116 kvar=1.1210377991237672 Phases=1 yearly=com_kw_43878_pu

New Load.load_p1ulv3330_1 conn=wye bus1=p1ulv3330.1 kV=0.12 Vminpu=0.8 Vmaxpu=1.2 model=1 kW=5.850494669124461 kvar=0.8234601250580765 Phases=1 yearly=res_kw_25330_pu

New Load.load_p1ulv3330_2 conn=wye bus1=p1ulv3330.2 kV=0.12 Vminpu=0.8 Vmaxpu=1.2 model=1 kW=5.850494669124461 kvar=0.8234601250580765 Phases=1 yearly=res_kw_25330_pu

New Load.load_p1ulv3331_1 conn=wye bus1=p1ulv3331.1 kV=0.12 Vminpu=0.8 Vmaxpu=1.2 model=1 kW=5.691543528113089 kvar=1.5564485607853333 Phases=1 yearly=res_kw_9613_pu

New Load.load_p1ulv3331_2 conn=wye bus1=p1ulv3331.2 kV=0.12 Vminpu=0.8 Vmaxpu=1.2 model=1 kW=5.691543528113089 kvar=1.5564485607853333 Phases=1 yearly=res_kw_9613_pu

New Load.load_p1ulv3332_1 conn=wye bus1=p1ulv3332.1 kV=0.12 Vminpu=0.8 Vmaxpu=1.2 model=1 kW=5.850494669124461 kvar=0.8234601250580765 Phases=1 yearly=res_kw_25330_pu

New Load.load_p1ulv3332_2 conn=wye bus1=p1ulv3332.2 kV=0.12 Vminpu=0.8 Vmaxpu=1.2 model=1 kW=5.850494669124461 kvar=0.8234601250580765 Phases=1 yearly=res_kw_25330_pu

New Load.load_p1ulv3334_1 conn=wye bus1=p1ulv3334.1 kV=0.12 Vminpu=0.8 Vmaxpu=1.2 model=1 kW=12.881427080810116 kvar=1.1210377991237672 Phases=1 yearly=com_kw_43878_pu

New Load.load_p1ulv3334_2 conn=wye bus1=p1ulv3334.2 kV=0.12 Vminpu=0.8 Vmaxpu=1.2 model=1 kW=12.881427080810116 kvar=1.1210377991237672 Phases=1 yearly=com_kw_43878_pu

New Load.load_p1ulv3412 conn=wye bus1=p1ulv3412.1.2.3 kV=0.48 Vminpu=0.8 Vmaxpu=1.2 model=1 kW=79.65429616153472 kvar=7.216220820941452 Phases=3 yearly=com_kw_66_pu

New Load.load_p1ulv3417_1 conn=wye bus1=p1ulv3417.1 kV=0.12 Vminpu=0.8 Vmaxpu=1.2 model=1 kW=8.60776795895911 kvar=2.1893473513523944 Phases=1 yearly=res_kw_17978_pu

New Load.load_p1ulv3417_2 conn=wye bus1=p1ulv3417.2 kV=0.12 Vminpu=0.8 Vmaxpu=1.2 model=1 kW=8.60776795895911 kvar=2.1893473513523944 Phases=1 yearly=res_kw_17978_pu

New Load.load_p1ulv3418_1 conn=wye bus1=p1ulv3418.1 kV=0.12 Vminpu=0.8 Vmaxpu=1.2 model=1 kW=3.4076541214547826 kvar=1.1225499298816486 Phases=1 yearly=res_kw_11924_pu

New Load.load_p1ulv3418_2 conn=wye bus1=p1ulv3418.2 kV=0.12 Vminpu=0.8 Vmaxpu=1.2 model=1 kW=3.4076541214547826 kvar=1.1225499298816486 Phases=1 yearly=res_kw_11924_pu

New Load.load_p1ulv3429_1 conn=wye bus1=p1ulv3429.1 kV=0.12 Vminpu=0.8 Vmaxpu=1.2 model=1 kW=2.7481711729648683 kvar=0.18872981642516995 Phases=1 yearly=res_kw_39288_pu

New Load.load_p1ulv3429_2 conn=wye bus1=p1ulv3429.2 kV=0.12 Vminpu=0.8 Vmaxpu=1.2 model=1 kW=2.7481711729648683 kvar=0.18872981642516995 Phases=1 yearly=res_kw_39288_pu

New Load.load_p1ulv3430_1 conn=wye bus1=p1ulv3430.1 kV=0.12 Vminpu=0.8 Vmaxpu=1.2 model=1 kW=3.4076541214547826 kvar=1.1225499298816486 Phases=1 yearly=res_kw_11924_pu

New Load.load_p1ulv3430_2 conn=wye bus1=p1ulv3430.2 kV=0.12 Vminpu=0.8 Vmaxpu=1.2 model=1 kW=3.4076541214547826 kvar=1.1225499298816486 Phases=1 yearly=res_kw_11924_pu

New Load.load_p1ulv3431_1 conn=wye bus1=p1ulv3431.1 kV=0.12 Vminpu=0.8 Vmaxpu=1.2 model=1 kW=6.542796606095953 kvar=1.3738960086195124 Phases=1 yearly=res_kw_4691_pu

New Load.load_p1ulv3431_2 conn=wye bus1=p1ulv3431.2 kV=0.12 Vminpu=0.8 Vmaxpu=1.2 model=1 kW=6.542796606095953 kvar=1.3738960086195124 Phases=1 yearly=res_kw_4691_pu

New Load.load_p1ulv3439_1 conn=wye bus1=p1ulv3439.1 kV=0.12 Vminpu=0.8 Vmaxpu=1.2 model=1 kW=12.881427080810116 kvar=1.1210377991237672 Phases=1 yearly=com_kw_43878_pu

New Load.load_p1ulv3439_2 conn=wye bus1=p1ulv3439.2 kV=0.12 Vminpu=0.8 Vmaxpu=1.2 model=1 kW=12.881427080810116 kvar=1.1210377991237672 Phases=1 yearly=com_kw_43878_pu

New Load.load_p1ulv3441_1 conn=wye bus1=p1ulv3441.1 kV=0.12 Vminpu=0.8 Vmaxpu=1.2 model=1 kW=8.60776795895911 kvar=2.1893473513523944 Phases=1 yearly=res_kw_17978_pu

New Load.load_p1ulv3441_2 conn=wye bus1=p1ulv3441.2 kV=0.12 Vminpu=0.8 Vmaxpu=1.2 model=1 kW=8.60776795895911 kvar=2.1893473513523944 Phases=1 yearly=res_kw_17978_pu

New Load.load_p1ulv3442_1 conn=wye bus1=p1ulv3442.1 kV=0.12 Vminpu=0.8 Vmaxpu=1.2 model=1 kW=12.881427080810116 kvar=1.1210377991237672 Phases=1 yearly=com_kw_43878_pu

New Load.load_p1ulv3442_2 conn=wye bus1=p1ulv3442.2 kV=0.12 Vminpu=0.8 Vmaxpu=1.2 model=1 kW=12.881427080810116 kvar=1.1210377991237672 Phases=1 yearly=com_kw_43878_pu

New Load.load_p1ulv3555_1 conn=wye bus1=p1ulv3555.1 kV=0.12 Vminpu=0.8 Vmaxpu=1.2 model=1 kW=9.957858863968443 kvar=2.996767143573338 Phases=1 yearly=res_kw_28011_pu

New Load.load_p1ulv3555_2 conn=wye bus1=p1ulv3555.2 kV=0.12 Vminpu=0.8 Vmaxpu=1.2 model=1 kW=9.957858863968443 kvar=2.996767143573338 Phases=1 yearly=res_kw_28011_pu

New Load.load_p1ulv3556_1 conn=wye bus1=p1ulv3556.1 kV=0.12 Vminpu=0.8 Vmaxpu=1.2 model=1 kW=7.820220576474504 kvar=1.6133803006600125 Phases=1 yearly=res_kw_13070_pu

New Load.load_p1ulv3556_2 conn=wye bus1=p1ulv3556.2 kV=0.12 Vminpu=0.8 Vmaxpu=1.2 model=1 kW=7.820220576474504 kvar=1.6133803006600125 Phases=1 yearly=res_kw_13070_pu

New Load.load_p1ulv3560_1 conn=wye bus1=p1ulv3560.1 kV=0.12 Vminpu=0.8 Vmaxpu=1.2 model=1 kW=12.881427080810116 kvar=1.1210377991237672 Phases=1 yearly=com_kw_43878_pu

New Load.load_p1ulv3560_2 conn=wye bus1=p1ulv3560.2 kV=0.12 Vminpu=0.8 Vmaxpu=1.2 model=1 kW=12.881427080810116 kvar=1.1210377991237672 Phases=1 yearly=com_kw_43878_pu

New Load.load_p1ulv3561_1 conn=wye bus1=p1ulv3561.1 kV=0.12 Vminpu=0.8 Vmaxpu=1.2 model=1 kW=2.6077776029016824 kvar=0.7673832328926916 Phases=1 yearly=res_kw_4467_pu

New Load.load_p1ulv3561_2 conn=wye bus1=p1ulv3561.2 kV=0.12 Vminpu=0.8 Vmaxpu=1.2 model=1 kW=2.6077776029016824 kvar=0.7673832328926916 Phases=1 yearly=res_kw_4467_pu

New Load.load_p1ulv3562_1 conn=wye bus1=p1ulv3562.1 kV=0.12 Vminpu=0.8 Vmaxpu=1.2 model=1 kW=2.6077776029016824 kvar=0.7673832328926916 Phases=1 yearly=res_kw_4467_pu

New Load.load_p1ulv3562_2 conn=wye bus1=p1ulv3562.2 kV=0.12 Vminpu=0.8 Vmaxpu=1.2 model=1 kW=2.6077776029016824 kvar=0.7673832328926916 Phases=1 yearly=res_kw_4467_pu

New Load.load_p1ulv3563_1 conn=wye bus1=p1ulv3563.1 kV=0.12 Vminpu=0.8 Vmaxpu=1.2 model=1 kW=5.850494669124461 kvar=0.8234601250580765 Phases=1 yearly=res_kw_25330_pu

New Load.load_p1ulv3563_2 conn=wye bus1=p1ulv3563.2 kV=0.12 Vminpu=0.8 Vmaxpu=1.2 model=1 kW=5.850494669124461 kvar=0.8234601250580765 Phases=1 yearly=res_kw_25330_pu

New Load.load_p1ulv3564_1 conn=wye bus1=p1ulv3564.1 kV=0.12 Vminpu=0.8 Vmaxpu=1.2 model=1 kW=5.185081035308567 kvar=1.3417185421886457 Phases=1 yearly=res_kw_11202_pu

New Load.load_p1ulv3564_2 conn=wye bus1=p1ulv3564.2 kV=0.12 Vminpu=0.8 Vmaxpu=1.2 model=1 kW=5.185081035308567 kvar=1.3417185421886457 Phases=1 yearly=res_kw_11202_pu

...